testData/tamu2000/pfcases_100_fullsys/texas2000_hr_4872_mod_23_pslf.raw
0  100.000 
THIS IS A SYNTHETIC POWER SYSTEM MODEL THAT DOES NOT REPRESE
DATA RESEARCH PROJECT AND CONTAINS NO CEII.
1001,  1,  0.000,  0.000,  0.000,  0.000,  1,  1.01345,  -71.2774,  'ODESSA 2',  115.00,  9
1002,  1,  0.000,  0.000,  0.000,  0.000,  1,  1.02702,  -72.4101,  'PRESIDIO',  115.00,  9
1003,  1,  0.000,  0.000,  0.000,  0.000,  1,  1.02687,  -68.4277,  'O DONNEL',  115.00,  9
1004,  2,  0.000,  0.000,  0.000,  0.000,  1,  1.02881,  -68.0309,  'O DONNEL',  230.00,  9
1005,  1,  0.000,  0.000,  0.000,  0.000,  1,  1.01642,  -72.7108,  'BIG SPRI',  115.00,  9
1006,  1,  -5.697,  4.940,  0.000,  0.000,  1,  1.01077,  -72.2620,  'BIG SPRI',  13.800,  9
1007,  1,  0.000,  2.082,  0.000,  0.000,  1,  1.02997,  -70.5411,  'VAN HORN',  115.00,  9
1008,  1,  0.000,  0.000,  0.000,  0.000,  1,  1.01799,  -70.4731,  'IRAAN 2 ',  115.00,  9
1009,  1,  -13.699,  11.880,  0.000,  0.000,  1,  1.00735,  -69.7180,  'IRAAN 2 ',  13.800,  9
1010,  1,  0.000,  4.634,  0.000,  0.000,  1,  1.02996,  -72.0260,  'PRESIDIO',  115.00,  9
1011,  2,  0.000,  0.000,  0.000,  0.000,  1,  1.02996,  -72.0260,  'PRESIDIO',  22.000,  9
1012,  1,  0.000,  -4.684,  0.000,  0.000,  1,  1.02994,  -78.1702,  'SANDERSO',  115.00,  9
1013,  1,  0.000,  0.000,  0.000,  0.000,  1,  1.00684,  -64.1514,  'MONAHANS',  115.00,  9
1014,  1,  0.000,  0.000,  0.000,  0.000,  1,  1.00980,  -65.2419,  'GRANDFAL',  115.00,  9
1015,  1,  0.000,  0.000,  0.000,  0.000,  1,  1.03287,  -71.9586,  'MARFA 0 ',  115.00,  9
1016,  1,  0.000,  -31.453,  0.000,  0.000,  1,  1.02391,  -74.7010,  'GARDEN C',  115.00,  9
1017,  1,  0.000,  0.000,  0.000,  0.000,  1,  0.99883,  -71.3749,  'ODESSA 4',  115.00,  9
1018,  1,  0.000,  0.000,  0.000,  0.000,  1,  0.99976,  -71.6683,  'NOTREES ',  115.00,  9
1019,  1,  -0.004,  -133.278,  0.000,  0.000,  1,  1.02999,  -71.4617,  'MIDLAND ',  115.00,  9
1020,  1,  -0.001,  -52.474,  0.000,  0.000,  1,  1.02998,  -71.9059,  'BIG SPRI',  115.00,  9
1021,  2,  0.000,  0.000,  0.000,  0.000,  1,  1.00845,  -70.4263,  'BIG SPRI',  13.800,  9
1022,  1,  0.000,  0.000,  0.000,  0.000,  1,  1.02743,  -68.0365,  'O DONNEL',  115.00,  9
1023,  1,  -29.891,  16.026,  0.000,  0.000,  1,  1.00978,  -66.0519,  'O DONNEL',  13.800,  9
1024,  1,  0.000,  0.000,  0.000,  0.000,  1,  1.00076,  -71.8739,  'ODESSA 6',  115.00,  9
1025,  1,  0.000,  0.000,  0.000,  0.000,  1,  1.02279,  -71.8119,  'BIG SPRI',  115.00,  9
1026,  1,  -20.624,  17.880,  0.000,  0.000,  1,  1.00185,  -70.1825,  'BIG SPRI',  13.800,  9
1027,  1,  0.000,  -40.397,  0.000,  0.000,  1,  1.02999,  -75.0703,  'MIDLAND ',  115.00,  9
1028,  1,  0.000,  0.000,  0.000,  0.000,  1,  1.03226,  -67.9580,  'COAHOMA ',  115.00,  9
1029,  1,  0.000,  -41.013,  0.000,  0.000,  1,  1.01257,  -76.4647,  'MIDLAND ',  115.00,  9
1030,  1,  0.000,  0.000,  0.000,  0.000,  1,  1.02621,  -71.0286,  'ALPINE 0',  115.00,  9
1031,  1,  0.000,  0.000,  0.000,  0.000,  1,  1.01989,  -67.6961,  'FORT DAV',  115.00,  9
1032,  1,  0.000,  0.000,  0.000,  0.000,  1,  1.01093,  -69.8550,  'MCCAMEY ',  115.00,  9
1033,  2,  0.000,  0.000,  0.000,  0.000,  1,  1.00667,  -68.9262,  'MCCAMEY ',  230.00,  9
1034,  1,  0.000,  0.000,  0.000,  0.000,  1,  1.00930,  -73.3662,  'BIG SPRI',  115.00,  9
1035,  1,  -14.945,  12.119,  0.000,  0.000,  1,  0.99957,  -72.6149,  'BIG SPRI',  13.800,  9
1036,  1,  0.000,  0.000,  0.000,  0.000,  1,  1.00321,  -71.6919,  'CRANE 0 ',  115.00,  9
1037,  1,  0.000,  0.000,  0.000,  0.000,  1,  1.00007,  -71.7699,  'ODESSA 5',  115.00,  9
1038,  1,  0.000,  0.000,  0.000,  0.000,  1,  1.01413,  -69.1828,  'FORT STO',  115.00,  9
1039,  1,  -24.495,  17.262,  0.000,  0.000,  1,  0.99956,  -67.9736,  'FORT STO',  22.000,  9
1040,  1,  0.000,  0.000,  0.000,  0.000,  1,  1.01402,  -71.8930,  'ANDREWS ',  115.00,  9
1041,  1,  0.000,  0.000,  0.000,  0.000,  1,  1.00752,  -72.9979,  'FORSAN 0',  115.00,  9
1042,  1,  -6.653,  7.252,  0.000,  0.000,  1,  0.99970,  -72.5596,  'FORSAN 1',  13.800,  9
1043,  1,  -9.764,  6.251,  0.000,  0.000,  1,  0.99970,  -72.2738,  'FORSAN 2',  13.800,  9
1044,  1,  0.000,  0.000,  0.000,  0.000,  1,  1.02576,  -76.4346,  'BIG LAKE',  115.00,  9
1045,  1,  0.000,  0.000,  0.000,  0.000,  1,  1.01374,  -72.9020,  'MIDLAND ',  115.00,  9
1046,  1,  0.000,  -1.983,  0.000,  0.000,  1,  1.02983,  -76.1888,  'OZONA 0 ',  115.00,  9
1047,  1,  0.000,  0.000,  0.000,  0.000,  1,  1.00474,  -61.6807,  'MONAHANS',  115.00,  9
1048,  2,  0.000,  0.000,  0.000,  0.000,  1,  1.00000,  -54.5795,  'MONAHANS',  18.000,  9
1049,  2,  0.000,  0.000,  0.000,  0.000,  1,  1.00000,  -48.9214,  'MONAHANS',  18.000,  9
1050,  2,  0.000,  0.000,  0.000,  0.000,  1,  1.00474,  -61.6807,  'MONAHANS',  18.000,  9
1051,  2,  0.000,  0.000,  0.000,  0.000,  1,  1.00474,  -61.6807,  'MONAHANS',  18.000,  9
1052,  2,  0.000,  0.000,  0.000,  0.000,  1,  1.00474,  -61.6807,  'MONAHANS',  18.000,  9
1053,  2,  0.000,  0.000,  0.000,  0.000,  1,  1.00691,  -64.7627,  'MONAHANS',  230.00,  9
1054,  1,  0.000,  0.000,  0.000,  0.000,  1,  1.01987,  -74.0736,  'STANTON ',  115.00,  9
1055,  1,  0.000,  0.000,  0.000,  0.000,  1,  1.02207,  -69.3023,  'ODONNELL',  115.00,  9
1056,  1,  0.000,  -60.875,  0.000,  0.000,  1,  1.02999,  -74.3911,  'LENORAH ',  115.00,  9
1057,  1,  -6.550,  17.280,  0.000,  0.000,  1,  1.00765,  -73.8867,  'LENORAH ',  18.000,  9
1058,  1,  0.000,  0.000,  0.000,  0.000,  1,  1.02501,  -72.0479,  'IRAAN 3 ',  115.00,  9
1059,  2,  0.000,  0.000,  0.000,  0.000,  1,  1.02501,  -72.0479,  'IRAAN 3 ',  22.000,  9
1060,  2,  0.000,  0.000,  0.000,  0.000,  1,  1.02501,  -72.0479,  'IRAAN 3 ',  22.000,  9
1061,  1,  0.000,  0.000,  0.000,  0.000,  1,  1.01943,  -72.7437,  'BIG SPRI',  115.00,  9
1062,  2,  0.000,  0.000,  0.000,  0.000,  1,  1.01943,  -72.7437,  'BIG SPRI',  13.800,  9
1063,  2,  0.000,  0.000,  0.000,  0.000,  1,  1.01943,  -72.7437,  'BIG SPRI',  13.800,  9
1064,  1,  0.000,  0.000,  0.000,  0.000,  1,  1.00895,  -72.3731,  'ODESSA 3',  115.00,  9
1065,  1,  0.000,  0.000,  0.000,  0.000,  1,  1.00992,  -72.9386,  'BIG SPRI',  115.00,  9
1066,  1,  -23.664,  8.887,  0.000,  0.000,  1,  0.99974,  -71.2590,  'BIG SPRI',  13.800,  9
1067,  1,  0.000,  0.000,  0.000,  0.000,  1,  1.00726,  -73.2287,  'BIG SPRI',  115.00,  9
1068,  1,  0.000,  0.000,  0.000,  0.000,  1,  0.99533,  -75.9409,  'MIDLAND ',  115.00,  9
1069,  1,  0.000,  0.000,  0.000,  0.000,  1,  1.02365,  -70.9653,  'IRAAN 1 ',  115.00,  9
1070,  1,  -26.653,  -22.960,  0.000,  0.000,  1,  1.03972,  -69.9976,  'IRAAN 1 ',  13.800,  9
1071,  1,  0.000,  0.000,  0.000,  0.000,  1,  1.01855,  -70.2692,  'ODESSA 1',  115.00,  9
1072,  3,  0.000,  0.000,  0.000,  0.000,  1,  1.01000,  -65.9497,  'ODESSA 1',  18.000,  9
1073,  2,  0.000,  0.000,  0.000,  0.000,  1,  1.01000,  -66.0178,  'ODESSA 1',  18.000,  9
1074,  2,  0.000,  0.000,  0.000,  0.000,  1,  1.01000,  -66.2439,  'ODESSA 1',  18.000,  9
1075,  2,  0.000,  0.000,  0.000,  0.000,  1,  1.01000,  -67.0487,  'ODESSA 1',  18.000,  9
1076,  2,  0.000,  0.000,  0.000,  0.000,  1,  1.01000,  -68.6697,  'ODESSA 1',  18.000,  9
1077,  2,  0.000,  0.000,  0.000,  0.000,  1,  1.01000,  -66.3693,  'ODESSA 1',  18.000,  9
1078,  2,  0.000,  0.000,  0.000,  0.000,  1,  1.01855,  -70.2692,  'ODESSA 1',  18.000,  9
1079,  2,  0.000,  0.000,  0.000,  0.000,  1,  1.05523,  -71.1892,  'ODESSA 1',  500.00,  9
1080,  2,  0.000,  0.000,  0.000,  0.000,  1,  1.01855,  -70.2692,  'ODESSA 1',  18.000,  9
1081,  2,  0.000,  0.000,  0.000,  0.000,  1,  1.01080,  -66.7475,  'ODESSA 1',  230.00,  9
1082,  1,  -24.909,  21.600,  0.000,  0.000,  1,  1.01242,  -69.2618,  'FORT STO',  115.00,  9
1083,  1,  0.000,  -27.158,  0.000,  0.000,  1,  1.01906,  -69.3356,  'FORT STO',  115.00,  9
1084,  1,  -19.179,  -24.600,  0.000,  0.000,  1,  1.03657,  -72.2583,  'BIG SPRI',  115.00,  9
1085,  1,  0.000,  0.000,  0.000,  0.000,  1,  1.00719,  -65.1832,  'KERMIT 0',  115.00,  9
1086,  1,  0.000,  -30.816,  0.000,  0.000,  1,  1.01350,  -66.9641,  'PECOS 0 ',  115.00,  9
1087,  1,  0.000,  -2.024,  0.000,  0.000,  1,  1.02990,  -74.0207,  'SHEFFIEL',  115.00,  9
1088,  1,  -12.454,  4.343,  0.000,  0.000,  1,  0.99926,  -72.9168,  'MCCAMEY ',  115.00,  9
1089,  1,  0.000,  0.000,  0.000,  0.000,  1,  1.01058,  -71.8828,  'LAMESA 0',  115.00,  9
1090,  1,  -11.956,  -37.206,  0.000,  0.000,  1,  1.01949,  -70.2077,  'GOLDSMIT',  115.00,  9
1091,  1,  0.000,  0.000,  0.000,  0.000,  1,  1.03860,  -71.4515,  'RALLS 2 ',  161.00,  9
2001,  1,  0.000,  0.000,  0.000,  0.000,  2,  1.01811,  -75.5045,  'PARIS 3 ',  161.00,  11
2002,  1,  0.000,  0.000,  0.000,  0.000,  2,  1.02734,  -73.0367,  'SAVOY 0 ',  500.00,  11
2003,  1,  0.000,  0.000,  0.000,  0.000,  2,  1.02798,  -74.7463,  'SAVOY 1 ',  161.00,  11
2004,  2,  0.000,  0.000,  0.000,  0.000,  2,  1.02121,  -72.0904,  'SAVOY 2 ',  13.800,  11
2005,  2,  0.000,  0.000,  0.000,  0.000,  2,  1.02022,  -71.9275,  'SAVOY 3 ',  13.800,  11
2006,  2,  0.000,  0.000,  0.000,  0.000,  2,  1.02000,  -71.3092,  'SAVOY 4 ',  13.800,  11
2007,  1,  0.000,  0.000,  0.000,  0.000,  2,  1.02372,  -74.7172,  'HONEY GR',  161.00,  11
2008,  1,  0.000,  0.000,  0.000,  0.000,  2,  1.01547,  -72.9148,  'MEMPHIS ',  161.00,  10
2009,  1,  -0.004,  -53.491,  0.000,  0.000,  2,  1.02999,  -74.2620,  'IOWA PAR',  161.00,  11
2010,  1,  0.000,  0.000,  0.000,  0.000,  2,  1.02985,  -73.6310,  'VERNON 2',  161.00,  10
2011,  1,  0.000,  0.000,  0.000,  0.000,  2,  1.04742,  -68.7465,  'PANHANDL',  500.00,  10
2012,  1,  0.000,  0.000,  0.000,  0.000,  2,  1.03491,  -68.4724,  'PANHANDL',  161.00,  10
2013,  2,  0.000,  0.000,  0.000,  0.000,  2,  1.03948,  -68.0088,  'PANHANDL',  18.000,  10
2014,  1,  0.000,  0.000,  0.000,  0.000,  2,  1.01446,  -73.9111,  'CHILDRES',  161.00,  10
2015,  1,  0.000,  0.000,  0.000,  0.000,  2,  1.02669,  -77.8370,  'FORESTBU',  161.00,  11
2016,  1,  0.000,  0.000,  0.000,  0.000,  2,  1.02354,  -78.2560,  'SHERMAN ',  161.00,  11
2017,  1,  0.000,  216.083,  0.000,  0.000,  2,  1.03943,  -68.3727,  'PANHANDL',  500.00,  10
2018,  1,  0.000,  0.000,  0.000,  0.000,  2,  1.03699,  -68.2749,  'PANHANDL',  161.00,  10
2019,  2,  0.000,  0.000,  0.000,  0.000,  2,  1.04000,  -67.7537,  'PANHANDL',  20.000,  10
2020,  1,  0.000,  0.000,  0.000,  0.000,  2,  1.02208,  -73.3131,  'WICHITA ',  161.00,  11
2021,  1,  0.000,  0.000,  0.000,  0.000,  2,  1.02962,  -72.8401,  'PARIS 2 ',  500.00,  11
2022,  1,  0.000,  0.000,  0.000,  0.000,  2,  1.02481,  -74.4431,  'PARIS 2 ',  161.00,  11
2023,  2,  0.000,  0.000,  0.000,  0.000,  2,  1.02962,  -72.8401,  'PARIS 2 ',  13.800,  11
2024,  2,  0.000,  0.000,  0.000,  0.000,  2,  1.02535,  -72.1784,  'PARIS 2 ',  13.800,  11
2025,  1,  0.000,  0.000,  0.000,  0.000,  2,  1.02014,  -73.0482,  'WICHITA ',  161.00,  11
2026,  1,  0.000,  0.000,  0.000,  0.000,  2,  1.03906,  -68.6479,  'WHEELER ',  161.00,  10
2027,  1,  0.000,  0.000,  0.000,  0.000,  2,  1.01805,  -75.8627,  'DEPORT 0',  161.00,  11
2028,  1,  0.000,  0.000,  0.000,  0.000,  2,  1.02298,  -74.2487,  'WICHITA ',  161.00,  11
2029,  1,  0.000,  0.000,  0.000,  0.000,  2,  1.02414,  -73.2786,  'SILVERTO',  161.00,  10
2030,  1,  0.000,  0.000,  0.000,  0.000,  2,  1.01225,  -77.0622,  'BONHAM 0',  161.00,  11
2031,  1,  0.000,  0.000,  0.000,  0.000,  2,  1.04226,  -71.9964,  'MATADOR ',  161.00,  10
2032,  1,  0.000,  0.000,  0.000,  0.000,  2,  1.02510,  -74.3858,  'ARTHUR C',  161.00,  11
2033,  1,  0.000,  0.000,  0.000,  0.000,  2,  1.00347,  -78.7104,  'LEONARD ',  161.00,  11
2034,  1,  0.000,  0.000,  0.000,  0.000,  2,  1.02622,  -77.9439,  'GORDONVI',  161.00,  11
2035,  1,  0.000,  0.000,  0.000,  0.000,  2,  1.03867,  -72.5041,  'KNOX CIT',  161.00,  10
2036,  1,  0.000,  0.000,  0.000,  0.000,  2,  1.02237,  -73.3417,  'WICHITA ',  161.00,  11
2037,  1,  0.000,  0.000,  0.000,  0.000,  2,  1.02937,  -77.8994,  'LINDSAY ',  161.00,  11
2038,  1,  0.000,  0.000,  0.000,  0.000,  2,  1.02492,  -75.4091,  'ECTOR 0 ',  161.00,  11
2039,  1,  0.000,  0.000,  0.000,  0.000,  2,  1.02115,  -77.1560,  'SUNSET 0',  161.00,  11
2040,  1,  0.000,  0.000,  0.000,  0.000,  2,  1.02390,  -74.9585,  'CLARKSVI',  161.00,  11
2041,  1,  0.000,  0.000,  0.000,  0.000,  2,  1.03237,  -67.6667,  'PANHANDL',  161.00,  10
2042,  1,  -18.351,  11.460,  0.000,  0.000,  2,  1.02388,  -66.8728,  'PANHANDL',  18.000,  10
2043,  1,  0.000,  0.000,  0.000,  0.000,  2,  1.02505,  -78.0907,  'SADLER 0',  161.00,  11
2044,  1,  0.000,  0.000,  0.000,  0.000,  2,  1.02761,  -76.9999,  'WHITESBO',  161.00,  11
2045,  1,  0.000,  0.000,  0.000,  0.000,  2,  1.02207,  -73.5261,  'SHEPPARD',  161.00,  11
2046,  1,  0.000,  0.000,  0.000,  0.000,  2,  1.02766,  -77.7478,  'POTTSBOR',  161.00,  11
2047,  1,  0.000,  0.000,  0.000,  0.000,  2,  1.02798,  -75.2847,  'BELLS 0 ',  161.00,  11
2048,  1,  0.000,  0.000,  0.000,  0.000,  2,  1.04124,  -72.2440,  'CROSBYTO',  161.00,  10
2049,  1,  0.000,  0.000,  0.000,  0.000,  2,  1.02805,  -73.4106,  'ELECTRA ',  161.00,  10
2050,  1,  0.000,  0.000,  0.000,  0.000,  2,  1.00313,  -78.3714,  'PATTONVI',  161.00,  11
2051,  1,  0.000,  0.000,  0.000,  0.000,  2,  1.02220,  -76.0630,  'HENRIETT',  161.00,  11
2052,  1,  0.000,  0.000,  0.000,  0.000,  2,  1.01753,  -71.5986,  'PANHANDL',  161.00,  10
2053,  1,  0.000,  0.000,  0.000,  0.000,  2,  1.02172,  -75.6150,  'BOWIE 0 ',  161.00,  11
2054,  1,  0.000,  0.000,  0.000,  0.000,  2,  1.02289,  -72.5137,  'WICHITA ',  500.00,  11
2055,  1,  0.000,  0.000,  0.000,  0.000,  2,  1.02257,  -72.9402,  'WICHITA ',  161.00,  11
2056,  2,  0.000,  0.000,  0.000,  0.000,  2,  1.02289,  -72.5137,  'WICHITA ',  18.000,  11
2057,  3,  0.000,  0.000,  0.000,  0.000,  2,  0.99000,  -72.5162,  'WICHITA ',  18.000,  11
2058,  1,  0.000,  0.000,  0.000,  0.000,  2,  1.03226,  -67.4198,  'WHITE DE',  161.00,  10
2059,  1,  -27.212,  11.520,  0.000,  0.000,  2,  1.02196,  -65.8955,  'WHITE DE',  13.800,  10
2060,  1,  0.000,  0.000,  0.000,  0.000,  2,  1.00506,  -77.4421,  'ROXTON 0',  161.00,  11
2061,  1,  0.000,  0.000,  0.000,  0.000,  2,  1.02646,  -72.5992,  'VERNON 1',  161.00,  10
2062,  2,  0.000,  0.000,  0.000,  0.000,  2,  1.02000,  -71.6211,  'VERNON 1',  18.000,  10
2063,  1,  0.000,  -38.358,  0.000,  0.000,  2,  1.03000,  -77.3995,  'DENISON ',  161.00,  11
2064,  1,  0.000,  0.000,  0.000,  0.000,  2,  1.01486,  -75.9003,  'SUMNER 0',  161.00,  11
2065,  1,  -0.001,  -53.666,  0.000,  0.000,  2,  1.03000,  -78.2904,  'GAINESVI',  161.00,  11
2066,  1,  0.000,  0.000,  0.000,  0.000,  2,  1.03846,  -71.6705,  'ASPERMON',  161.00,  10
2067,  1,  0.000,  0.000,  0.000,  0.000,  2,  1.01797,  -73.0681,  'WICHITA ',  161.00,  11
2068,  1,  0.000,  0.000,  0.000,  0.000,  2,  1.01779,  -72.0535,  'WINDTHOR',  161.00,  11
2069,  1,  -0.001,  -40.194,  0.000,  0.000,  2,  1.03000,  -77.5656,  'HOWE 0  ',  161.00,  11
2070,  1,  0.000,  0.000,  0.000,  0.000,  2,  1.01901,  -71.7182,  'ARCHER 2',  161.00,  11
2071,  1,  -29.451,  21.600,  0.000,  0.000,  2,  1.00700,  -70.7639,  'ARCHER 2',  18.000,  11
2072,  1,  0.000,  0.000,  0.000,  0.000,  2,  1.02943,  -76.4192,  'COLLINSV',  161.00,  11
2073,  1,  0.000,  0.000,  0.000,  0.000,  2,  1.03749,  -70.8454,  'JAYTON 0',  161.00,  10
2074,  1,  0.000,  0.000,  0.000,  0.000,  2,  1.03097,  -70.6252,  'JAYTON 1',  115.00,  10
2075,  1,  0.000,  0.000,  0.000,  0.000,  2,  1.03097,  -70.6252,  'JAYTON 2',  115.00,  10
2076,  1,  -4.982,  -2.835,  0.000,  0.000,  2,  1.03966,  -70.6551,  'JAYTON 3',  24.000,  10
2077,  1,  0.000,  0.000,  0.000,  0.000,  2,  1.02841,  -77.3742,  'MUENSTER',  161.00,  11
2078,  1,  -22.089,  12.517,  0.000,  0.000,  2,  1.01996,  -76.4991,  'MUENSTER',  13.800,  11
2079,  1,  0.000,  0.000,  0.000,  0.000,  2,  1.03658,  -73.1643,  'PADUCAH ',  161.00,  10
2080,  1,  0.000,  0.000,  0.000,  0.000,  2,  1.02357,  -76.7467,  'NOCONA 0',  161.00,  11
2081,  1,  0.000,  0.000,  0.000,  0.000,  2,  1.01943,  -76.5858,  'DODD CIT',  161.00,  11
2082,  1,  0.000,  0.000,  0.000,  0.000,  2,  1.02329,  -73.6657,  'WICHITA ',  161.00,  11
2083,  2,  0.000,  0.000,  0.000,  0.000,  2,  1.02329,  -73.6657,  'WICHITA ',  20.000,  11
2084,  2,  0.000,  0.000,  0.000,  0.000,  2,  1.02329,  -73.6657,  'WICHITA ',  20.000,  11
2085,  2,  0.000,  0.000,  0.000,  0.000,  2,  1.02329,  -73.6657,  'WICHITA ',  20.000,  11
2086,  1,  0.000,  0.000,  0.000,  0.000,  2,  1.02250,  -77.0139,  'MONTAGUE',  161.00,  11
2087,  1,  0.000,  0.000,  0.000,  0.000,  2,  1.04000,  -71.5853,  'SPUR 0  ',  161.00,  10
2088,  1,  0.000,  0.000,  0.000,  0.000,  2,  1.01787,  -71.8896,  'ARCHER 1',  161.00,  11
2089,  1,  -13.272,  9.730,  0.000,  0.000,  2,  1.00609,  -70.9548,  'ARCHER 1',  24.000,  11
2090,  1,  0.000,  0.000,  0.000,  0.000,  2,  1.01682,  -76.4145,  'ANNONA 0',  161.00,  11
2091,  1,  0.000,  0.000,  0.000,  0.000,  2,  1.03600,  -73.2566,  'SEYMOUR ',  161.00,  10
2092,  1,  0.000,  0.000,  0.000,  0.000,  2,  1.02818,  -76.3826,  'DENISON ',  161.00,  11
2093,  1,  0.000,  0.000,  0.000,  0.000,  2,  1.03426,  -68.1369,  'PANHANDL',  161.00,  10
2094,  1,  -1.837,  1.440,  0.000,  0.000,  2,  1.03285,  -68.0338,  'PANHANDL',  13.800,  10
2095,  1,  -14.603,  11.450,  0.000,  0.000,  2,  1.02877,  -67.7266,  'PANHANDL',  13.800,  10
2096,  1,  0.000,  142.159,  0.000,  0.000,  2,  1.02999,  -67.8134,  'RALLS 1 ',  500.00,  10
2097,  1,  0.000,  0.000,  0.000,  0.000,  2,  1.03172,  -67.9830,  'RALLS 1 ',  230.00,  10
2098,  1,  0.000,  0.000,  0.000,  0.000,  2,  1.03914,  -70.9008,  'RALLS 1 ',  161.00,  10
2099,  1,  -4.626,  1.440,  0.000,  0.000,  2,  1.02952,  -67.7263,  'RALLS 1 ',  18.000,  10
2100,  2,  0.000,  0.000,  0.000,  0.000,  2,  1.02113,  -66.2035,  'RALLS 1 ',  18.000,  10
2101,  1,  0.000,  0.000,  0.000,  0.000,  2,  1.02844,  -73.4987,  'SHERMAN ',  500.00,  11
2102,  1,  0.000,  0.000,  0.000,  0.000,  2,  1.02943,  -74.5613,  'SHERMAN ',  161.00,  11
2103,  2,  0.000,  0.000,  0.000,  0.000,  2,  1.02492,  -72.9490,  'SHERMAN ',  20.000,  11
2104,  2,  0.000,  0.000,  0.000,  0.000,  2,  1.02378,  -72.7783,  'SHERMAN ',  20.000,  11
2105,  2,  0.000,  0.000,  0.000,  0.000,  2,  1.02114,  -72.3556,  'SHERMAN ',  20.000,  11
2106,  1,  0.000,  0.000,  0.000,  0.000,  2,  1.00740,  -78.3234,  'WHITEWRI',  161.00,  11
2107,  1,  0.000,  0.000,  0.000,  0.000,  2,  1.02732,  -75.0406,  'SHERMAN ',  161.00,  11
2108,  1,  0.000,  0.000,  0.000,  0.000,  2,  1.03708,  -73.7776,  'ROCHESTE',  161.00,  10
2109,  1,  0.000,  0.000,  0.000,  0.000,  2,  1.02644,  -74.3642,  'BURKBURN',  161.00,  11
...
 0 /End of Bus data, Begin Generator data
1004,  '1',  35.038,  -30.380,  44.940,  -30.380,  1.01000,  0,  253.200,  0.00000,  1.00000,  0.00000,  0.00000,  1.00000,  1,  100.0,  211.000,  63.300
1011,  '1',  0.000,  0.000,  0.000,  0.000,  1.00000,  0,  12.000,  0.00000,  1.00000,  0.00000,  0.00000,  1.00000,  0,  100.0,  10.000,  3.000
1021,  '1',  33.130,  -28.730,  42.490,  -28.730,  1.00000,  0,  239.400,  0.00000,  1.00000,  0.00000,  0.00000,  1.00000,  1,  100.0,  199.500,  59.850
1033,  '1',  46.164,  -40.030,  59.210,  -40.030,  1.00000,  0,  333.600,  0.00000,  1.00000,  0.00000,  0.00000,  1.00000,  1,  100.0,  278.000,  83.400
1048,  '1',  188.620,  -5.098,  165.530,  -36.100,  1.00000,  0,  390.240,  0.00000,  0.10170,  0.00000,  0.00000,  1.00000,  1,  100.0,  325.200,  97.560
1049,  '1',  188.620,  12.615,  165.530,  -36.100,  1.00000,  0,  390.240,  0.00000,  0.13490,  0.00000,  0.00000,  1.00000,  1,  100.0,  325.200,  97.560
1050,  '1',  0.000,  -6.604,  45.500,  -9.920,  1.00000,  0,  107.280,  0.00000,  0.27770,  0.00000,  0.00000,  1.00000,  0,  100.0,  89.400,  26.820
1051,  '1',  0.000,  -4.791,  45.500,  -9.920,  1.00000,  0,  107.280,  0.00000,  0.31740,  0.00000,  0.00000,  1.00000,  0,  100.0,  89.400,  26.820
1052,  '1',  0.000,  -9.920,  45.500,  -9.920,  1.00000,  0,  107.280,  0.00000,  0.27810,  0.00000,  0.00000,  1.00000,  0,  100.0,  89.400,  26.820
1053,  '1',  53.640,  -19.850,  91.010,  -19.850,  1.00000,  0,  214.560,  0.00000,  0.16870,  0.00000,  0.00000,  1.00000,  1,  100.0,  178.800,  53.640
1059,  '1',  0.000,  0.000,  2.850,  -0.620,  1.04000,  0,  6.720,  0.00000,  0.22770,  0.00000,  0.00000,  1.00000,  0,  100.0,  5.600,  1.680
1060,  '1',  0.000,  0.000,  1.020,  -0.220,  1.04000,  0,  2.400,  0.00000,  0.16300,  0.00000,  0.00000,  1.00000,  0,  100.0,  2.000,  0.600
1062,  '1',  0.000,  0.000,  0.000,  0.000,  1.01000,  0,  1.800,  0.00000,  1.00000,  0.00000,  0.00000,  1.00000,  0,  100.0,  1.500,  0.450
1063,  '1',  0.000,  0.000,  0.000,  0.000,  1.01000,  0,  276.000,  0.00000,  1.00000,  0.00000,  0.00000,  1.00000,  0,  100.0,  230.000,  69.000
1072,  '1',  89.854,  -12.243,  97.800,  -21.330,  1.01000,  0,  230.560,  0.00000,  0.30820,  0.00000,  0.00000,  1.00000,  1,  100.0,  192.130,  57.640
1073,  '1',  57.640,  -10.231,  97.800,  -21.330,  1.01000,  0,  230.560,  0.00000,  0.19480,  0.00000,  0.00000,  1.00000,  1,  100.0,  192.130,  57.640
1074,  '1',  57.640,  -7.560,  97.800,  -21.330,  1.01000,  0,  230.560,  0.00000,  0.20960,  0.00000,  0.00000,  1.00000,  1,  100.0,  192.130,  57.640
1075,  '1',  57.640,  -9.193,  97.800,  -21.330,  1.01000,  0,  230.560,  0.00000,  0.12370,  0.00000,  0.00000,  1.00000,  1,  100.0,  192.130,  57.640
1076,  '1',  57.640,  -18.330,  97.800,  -21.330,  1.01000,  0,  230.560,  0.00000,  0.10660,  0.00000,  0.00000,  1.00000,  1,  100.0,  192.130,  57.640
1077,  '1',  57.640,  -8.259,  97.800,  -21.330,  1.01000,  0,  230.560,  0.00000,  0.15380,  0.00000,  0.00000,  1.00000,  1,  100.0,  192.130,  57.640
1078,  '1',  0.000,  16.268,  48.610,  -10.600,  1.01000,  0,  114.600,  0.00000,  0.28520,  0.00000,  0.00000,  1.00000,  0,  100.0,  95.500,  28.650
1079,  '1',  0.000,  -10.600,  48.610,  -10.600,  1.01000,  0,  114.600,  0.00000,  0.17260,  0.00000,  0.00000,  1.00000,  0,  100.0,  95.500,  28.650
1080,  '1',  0.000,  13.126,  48.610,  -10.600,  1.01000,  0,  114.600,  0.00000,  0.15430,  0.00000,  0.00000,  1.00000,  0,  100.0,  95.500,  28.650
1081,  '1',  166.170,  -31.800,  145.830,  -31.800,  1.01000,  0,  343.800,  0.00000,  0.14960,  0.00000,  0.00000,  1.00000,  1,  100.0,  286.500,  85.950
2004,  '1',  117.540,  -43.490,  199.430,  -43.490,  1.02000,  0,  470.160,  0.00000,  0.10640,  0.00000,  0.00000,  1.00000,  1,  100.0,  391.800,  117.540
2005,  '1',  117.540,  -43.490,  199.430,  -43.490,  1.02000,  0,  470.160,  0.00000,  0.22750,  0.00000,  0.00000,  1.00000,  1,  100.0,  391.800,  117.540
2006,  '1',  117.540,  -27.754,  199.430,  -43.490,  1.02000,  0,  470.160,  0.00000,  0.20040,  0.00000,  0.00000,  1.00000,  1,  100.0,  391.800,  117.540
2013,  '1',  47.953,  -28.890,  42.730,  -28.890,  1.00000,  0,  240.720,  0.00000,  1.00000,  0.00000,  0.00000,  1.00000,  1,  100.0,  200.600,  60.180
2019,  '1',  98.871,  3.906,  46.430,  -31.390,  1.04000,  0,  261.600,  0.00000,  1.00000,  0.00000,  0.00000,  1.00000,  1,  100.0,  218.000,  65.400
2023,  '1',  0.000,  15.439,  42.420,  -9.250,  1.02000,  0,  100.000,  0.00000,  0.29440,  0.00000,  0.00000,  1.00000,  0,  100.0,  83.330,  25.000
2024,  '1',  50.000,  -18.500,  84.830,  -18.500,  1.02000,  0,  200.000,  0.00000,  0.15080,  0.00000,  0.00000,  1.00000,  1,  100.0,  166.670,  50.000
2056,  '1',  0.000,  0.000,  2.800,  -0.730,  0.99000,  0,  7.200,  0.00000,  0.24920,  0.00000,  0.00000,  1.00000,  0,  100.0,  6.000,  1.800
2057,  '1',  -5.003,  -246.409,  335.520,  -87.840,  0.99000,  0,  864.000,  0.00000,  0.17700,  0.00000,  0.00000,  1.00000,  1,  100.0,  720.000,  216.000
2062,  '1',  42.885,  -17.357,  28.840,  -19.500,  1.02000,  0,  162.480,  0.00000,  1.00000,  0.00000,  0.00000,  1.00000,  1,  100.0,  135.400,  40.620
2083,  '1',  0.000,  10.080,  10.180,  -2.220,  1.02000,  0,  24.000,  0.00000,  0.16410,  0.00000,  0.00000,  1.00000,  0,  100.0,  20.000,  6.000
2084,  '1',  0.000,  0.000,  10.180,  -2.220,  1.02000,  0,  24.000,  0.00000,  0.23120,  0.00000,  0.00000,  1.00000,  0,  100.0,  20.000,  6.000
2085,  '1',  0.000,  0.000,  20.360,  -4.440,  1.02000,  0,  48.000,  0.00000,  0.22690,  0.00000,  0.00000,  1.00000,  0,  100.0,  40.000,  12.000
2100,  '1',  69.391,  -21.600,  31.950,  -21.600,  1.02000,  0,  180.000,  0.00000,  1.00000,  0.00000,  0.00000,  1.00000,  1,  100.0,  150.000,  45.000
2103,  '1',  80.320,  -29.720,  136.280,  -29.720,  1.00000,  0,  321.280,  0.00000,  0.33430,  0.00000,  0.00000,  1.00000,  1,  100.0,  267.730,  80.320
2104,  '1',  80.320,  -29.720,  136.280,  -29.720,  1.00000,  0,  321.280,  0.00000,  0.31470,  0.00000,  0.00000,  1.00000,  1,  100.0,  267.730,  80.320
2105,  '1',  80.320,  -29.720,  136.280,  -29.720,  1.00000,  0,  321.280,  0.00000,  0.14160,  0.00000,  0.00000,  1.00000,  1,  100.0,  267.730,  80.320
2115,  '1',  55.410,  -20.500,  94.020,  -20.500,  1.00000,  0,  221.660,  0.00000,  0.14250,  0.00000,  0.00000,  1.00000,  1,  100.0,  184.720,  55.410
2116,  '1',  55.410,  -20.500,  94.020,  -20.500,  1.00000,  0,  221.660,  0.00000,  0.18690,  0.00000,  0.00000,  1.00000,  1,  100.0,  184.720,  55.410
2117,  '1',  55.410,  -20.500,  94.020,  -20.500,  1.00000,  0,  221.660,  0.00000,  0.32540,  0.00000,  0.00000,  1.00000,  1,  100.0,  184.720,  55.410
2118,  '1',  55.410,  -20.500,  94.020,  -20.500,  1.00000,  0,  221.660,  0.00000,  0.10610,  0.00000,  0.00000,  1.00000,  1,  100.0,  184.720,  55.410
2119,  '1',  55.410,  -20.500,  94.020,  -20.500,  1.00000,  0,  221.660,  0.00000,  0.13600,  0.00000,  0.00000,  1.00000,  1,  100.0,  184.720,  55.410
2120,  '1',  55.410,  -20.500,  94.020,  -20.500,  1.01000,  0,  221.660,  0.00000,  0.20680,  0.00000,  0.00000,  1.00000,  1,  100.0,  184.720,  55.410
2123,  '1',  41.891,  -26.160,  38.700,  -26.160,  1.00000,  0,  218.040,  0.00000,  1.00000,  0.00000,  0.00000,  1.00000,  1,  100.0,  181.700,  54.510
3028,  '1',  39.268,  -3.089,  42.600,  -28.800,  1.04000,  0,  240.000,  0.00000,  1.00000,  0.00000,  0.00000,  1.00000,  1,  100.0,  200.000,  60.000
3039,  '1',  34.706,  -0.927,  44.520,  -30.100,  1.04000,  0,  250.800,  0.00000,  1.00000,  0.00000,  0.00000,  1.00000,  1,  100.0,  209.000,  62.700
3043,  '1',  0.000,  0.000,  0.660,  -0.140,  1.04000,  0,  1.560,  0.00000,  0.27280,  0.00000,  0.00000,  1.00000,  0,  100.0,  1.300,  0.390
3044,  '1',  0.000,  0.000,  45.500,  -9.920,  1.04000,  0,  107.280,  0.00000,  0.17000,  0.00000,  0.00000,  1.00000,  0,  100.0,  89.400,  26.820
3045,  '1',  134.100,  -2.154,  227.520,  -49.620,  1.04000,  0,  536.400,  0.00000,  0.14470,  0.00000,  0.00000,  1.00000,  1,  100.0,  447.000,  134.100
3048,  '1',  40.020,  -34.700,  51.330,  -34.700,  1.04000,  0,  289.200,  0.00000,  1.00000,  0.00000,  0.00000,  1.00000,  1,  100.0,  241.000,  72.300
3055,  '1',  40.713,  0.878,  52.220,  -35.300,  1.04000,  0,  294.200,  0.00000,  1.00000,  0.00000,  0.00000,  1.00000,  1,  100.0,  245.170,  73.550
3056,  '1',  40.713,  0.522,  52.220,  -35.300,  1.04000,  0,  294.200,  0.00000,  1.00000,  0.00000,  0.00000,  1.00000,  1,  100.0,  245.170,  73.550
3057,  '1',  40.713,  0.113,  52.220,  -35.300,  1.04000,  0,  294.200,  0.00000,  1.00000,  0.00000,  0.00000,  1.00000,  1,  100.0,  245.170,  73.550
3081,  '1',  41.349,  -1.718,  53.040,  -35.860,  1.04000,  0,  298.800,  0.00000,  1.00000,  0.00000,  0.00000,  1.00000,  1,  100.0,  249.000,  74.700
3084,  '1',  38.607,  -33.480,  49.520,  -33.480,  1.00000,  0,  279.000,  0.00000,  1.00000,  0.00000,  0.00000,  1.00000,  1,  100.0,  232.500,  69.750
3092,  '1',  33.212,  0.993,  42.600,  -28.800,  1.04000,  0,  240.000,  0.00000,  1.00000,  0.00000,  0.00000,  1.00000,  1,  100.0,  200.000,  60.000
3106,  '1',  21.977,  -16.631,  62.477,  -2.690,  1.00000,  0,  65.880,  0.00000,  0.29220,  0.00000,  0.00000,  1.00000,  1,  100.0,  162.800,  0.000
3120,  '1',  0.000,  0.000,  0.000,  0.000,  1.00000,  0,  47.520,  0.00000,  1.00000,  0.00000,  0.00000,  1.00000,  0,  100.0,  39.600,  11.880
3122,  '1',  32.714,  -17.870,  41.960,  -28.370,  1.00000,  0,  236.400,  0.00000,  1.00000,  0.00000,  0.00000,  1.00000,  1,  100.0,  197.000,  59.100
3133,  '1',  0.000,  26.110,  26.110,  -5.690,  1.04000,  0,  61.560,  0.00000,  0.10470,  0.00000,  0.00000,  1.00000,  0,  100.0,  51.300,  15.390
4010,  '1',  33.477,  7.259,  42.940,  -29.030,  1.03000,  0,  241.920,  0.00000,  1.00000,  0.00000,  0.00000,  1.00000,  1,  100.0,  201.600,  60.480
4026,  '1',  123.000,  9.486,  191.060,  -50.020,  1.03000,  0,  492.000,  0.00000,  0.32770,  0.00000,  0.00000,  1.00000,  1,  100.0,  410.000,  123.000
4030,  '1',  246.378,  -6.045,  290.040,  -75.930,  1.01000,  0,  746.880,  0.00000,  0.27970,  0.00000,  0.00000,  1.00000,  1,  100.0,  622.400,  186.720
4050,  '1',  33.212,  -28.800,  42.600,  -28.800,  1.00000,  0,  240.000,  0.00000,  1.00000,  0.00000,  0.00000,  1.00000,  1,  100.0,  200.000,  60.000
4052,  '1',  0.000,  22.500,  22.500,  -4.910,  1.04000,  0,  53.040,  0.00000,  0.28510,  0.00000,  0.00000,  1.00000,  0,  100.0,  44.200,  13.260
4058,  '1',  43.200,  9.388,  73.300,  -15.980,  1.03000,  0,  172.800,  0.00000,  0.13700,  0.00000,  0.00000,  1.00000,  1,  100.0,  144.000,  43.200
4059,  '1',  43.200,  10.387,  73.300,  -15.980,  1.03000,  0,  172.800,  0.00000,  0.15140,  0.00000,  0.00000,  1.00000,  1,  100.0,  144.000,  43.200
4060,  '1',  43.200,  6.496,  73.300,  -15.980,  1.03000,  0,  172.800,  0.00000,  0.13940,  0.00000,  0.00000,  1.00000,  1,  100.0,  144.000,  43.200
4061,  '1',  51.700,  9.427,  87.720,  -19.130,  1.03000,  0,  206.800,  0.00000,  0.21560,  0.00000,  0.00000,  1.00000,  1,  100.0,  172.330,  51.700
4062,  '1',  51.700,  6.864,  87.720,  -19.130,  1.03000,  0,  206.800,  0.00000,  0.25930,  0.00000,  0.00000,  1.00000,  1,  100.0,  172.330,  51.700
4063,  '1',  51.700,  9.926,  87.720,  -19.130,  1.03000,  0,  206.800,  0.00000,  0.14410,  0.00000,  0.00000,  1.00000,  1,  100.0,  172.330,  51.700
4065,  '1',  0.000,  13.408,  23.920,  -5.220,  1.02000,  0,  56.400,  0.00000,  0.15920,  0.00000,  0.00000,  1.00000,  0,  100.0,  47.000,  14.100
4075,  '1',  0.000,  0.000,  89.750,  -19.570,  1.03000,  0,  211.600,  0.00000,  0.11980,  0.00000,  0.00000,  1.00000,  0,  100.0,  176.330,  52.900
4076,  '1',  0.000,  23.562,  89.750,  -19.570,  1.03000,  0,  211.600,  0.00000,  0.13140,  0.00000,  0.00000,  1.00000,  0,  100.0,  176.330,  52.900
4077,  '1',  0.000,  17.974,  89.750,  -19.570,  1.03000,  0,  211.600,  0.00000,  0.23730,  0.00000,  0.00000,  1.00000,  0,  100.0,  176.330,  52.900
4082,  '1',  141.170,  16.773,  123.890,  -27.020,  1.04000,  0,  292.080,  0.00000,  0.13810,  0.00000,  0.00000,  1.00000,  1,  100.0,  243.400,  73.020
4083,  '1',  141.170,  17.742,  123.890,  -27.020,  1.04000,  0,  292.080,  0.00000,  0.15700,  0.00000,  0.00000,  1.00000,  1,  100.0,  243.400,  73.020
4084,  '1',  141.170,  31.003,  123.890,  -27.020,  1.04000,  0,  292.080,  0.00000,  0.19110,  0.00000,  0.00000,  1.00000,  1,  100.0,  243.400,  73.020
4085,  '1',  204.160,  35.084,  179.170,  -39.070,  1.04000,  0,  422.400,  0.00000,  0.31920,  0.00000,  0.00000,  1.00000,  1,  100.0,  352.000,  105.600
4090,  '1',  0.000,  0.000,  0.650,  -0.170,  1.01000,  0,  1.680,  0.00000,  0.23450,  0.00000,  0.00000,  1.00000,  0,  100.0,  1.400,  0.420
4091,  '1',  0.000,  2.447,  10.950,  -2.870,  1.01000,  0,  28.200,  0.00000,  0.13620,  0.00000,  0.00000,  1.00000,  0,  100.0,  23.500,  7.050
4092,  '1',  0.000,  0.000,  3.540,  -0.930,  1.01000,  0,  9.120,  0.00000,  0.10570,  0.00000,  0.00000,  1.00000,  0,  100.0,  7.600,  2.280
4093,  '1',  0.000,  1.299,  13.050,  -3.420,  1.01000,  0,  33.600,  0.00000,  0.12560,  0.00000,  0.00000,  1.00000,  0,  100.0,  28.000,  8.400
4094,  '1',  0.000,  4.863,  13.050,  -3.420,  1.01000,  0,  33.600,  0.00000,  0.35660,  0.00000,  0.00000,  1.00000,  0,  100.0,  28.000,  8.400
4095,  '1',  0.000,  2.145,  13.050,  -3.420,  1.01000,  0,  33.600,  0.00000,  0.24030,  0.00000,  0.00000,  1.00000,  0,  100.0,  28.000,  8.400
4096,  '1',  0.000,  0.000,  13.050,  -3.420,  1.01000,  0,  33.600,  0.00000,  0.23980,  0.00000,  0.00000,  1.00000,  0,  100.0,  28.000,  8.400
4097,  '1',  0.000,  1.867,  13.050,  -3.420,  1.01000,  0,  33.600,  0.00000,  0.22170,  0.00000,  0.00000,  1.00000,  0,  100.0,  28.000,  8.400
4098,  '1',  0.000,  0.000,  13.050,  -3.420,  1.01000,  0,  33.600,  0.00000,  0.24690,  0.00000,  0.00000,  1.00000,  0,  100.0,  28.000,  8.400
4105,  '1',  35.341,  -8.639,  38.340,  -25.920,  1.01000,  0,  216.000,  0.00000,  1.00000,  0.00000,  0.00000,  1.00000,  1,  100.0,  180.000,  54.000
4115,  '1',  39.540,  20.115,  67.090,  -14.630,  1.04000,  0,  158.160,  0.00000,  0.11310,  0.00000,  0.00000,  1.00000,  1,  100.0,  131.800,  39.540
4116,  '1',  39.540,  18.733,  67.090,  -14.630,  1.04000,  0,  158.160,  0.00000,  0.15150,  0.00000,  0.00000,  1.00000,  1,  100.0,  131.800,  39.540
4133,  '1',  0.000,  0.000,  17.100,  -3.730,  1.00000,  0,  40.320,  0.00000,  0.22730,  0.00000,  0.00000,  1.00000,  0,  100.0,  33.600,  10.080
4134,  '1',  0.000,  -3.730,  17.100,  -3.730,  1.00000,  0,  40.320,  0.00000,  0.18000,  0.00000,  0.00000,  1.00000,  0,  100.0,  33.600,  10.080
4135,  '1',  0.000,  -3.730,  17.100,  -3.730,  1.00000,  0,  40.320,  0.00000,  0.10840,  0.00000,  0.00000,  1.00000,  0,  100.0,  33.600,  10.080
4136,  '1',  0.000,  -3.730,  17.100,  -3.730,  1.00000,  0,  40.320,  0.00000,  0.18960,  0.00000,  0.00000,  1.00000,  0,  100.0,  33.600,  10.080
4137,  '1',  0.000,  0.000,  34.200,  -7.460,  1.00000,  0,  80.640,  0.00000,  0.27350,  0.00000,  0.00000,  1.00000,  0,  100.0,  67.200,  20.160
4138,  '1',  0.000,  0.000,  33.590,  -7.330,  1.00000,  0,  79.200,  0.00000,  0.16760,  0.00000,  0.00000,  1.00000,  0,  100.0,  66.000,  19.800
4142,  '1',  31.219,  22.902,  40.040,  -27.070,  1.04000,  0,  225.600,  0.00000,  1.00000,  0.00000,  0.00000,  1.00000,  1,  100.0,  188.000,  56.400
4153,  '1',  47.028,  51.184,  60.320,  -40.780,  1.04000,  0,  339.840,  0.00000,  1.00000,  0.00000,  0.00000,  1.00000,  1,  100.0,  283.200,  84.960
4160,  '1',  114.710,  24.990,  100.660,  -21.950,  1.03000,  0,  237.320,  0.00000,  0.18820,  0.00000,  0.00000,  1.00000,  1,  100.0,  197.770,  59.330
4161,  '1',  114.710,  12.620,  100.660,  -21.950,  1.03000,  0,  237.320,  0.00000,  0.12390,  0.00000,  0.00000,  1.00000,  1,  100.0,  197.770,  59.330
4162,  '1',  114.710,  10.317,  100.660,  -21.950,  1.03000,  0,  237.320,  0.00000,  0.17220,  0.00000,  0.00000,  1.00000,  1,  100.0,  197.770,  59.330
4163,  '1',  0.000,  0.000,  4.580,  -1.000,  1.03000,  0,  10.800,  0.00000,  0.23060,  0.00000,  0.00000,  1.00000,  0,  100.0,  9.000,  2.700
4166,  '1',  33.378,  -28.940,  42.810,  -28.940,  1.00000,  0,  241.200,  0.00000,  1.00000,  0.00000,  0.00000,  1.00000,  1,  100.0,  201.000,  60.300
4181,  '1',  39.286,  42.620,  42.620,  -28.810,  1.04000,  0,  240.120,  0.00000,  1.00000,  0.00000,  0.00000,  1.00000,  1,  100.0,  200.100,  60.030
4183,  '1',  33.710,  43.240,  43.240,  -29.230,  1.03000,  0,  243.600,  0.00000,  1.00000,  0.00000,  0.00000,  1.00000,  1,  100.0,  203.000,  60.900
4192,  '1',  629.970,  14.082,  688.320,  -150.120,  1.02000,  0,  1622.76,  0.00000,  0.14340,  0.00000,  0.00000,  1.00000,  1,  100.0,  1352.31,  405.690
4194,  '1',  33.477,  42.940,  42.940,  -29.030,  1.02000,  0,  241.920,  0.00000,  1.00000,  0.00000,  0.00000,  1.00000,  1,  100.0,  201.600,  60.480
5023,  '1',  0.000,  0.000,  2.440,  -0.530,  1.04000,  0,  5.760,  0.00000,  0.15290,  0.00000,  0.00000,  1.00000,  0,  100.0,  4.800,  1.440
5035,  '1',  0.000,  0.000,  2.140,  -0.470,  1.02000,  0,  5.040,  0.00000,  0.14180,  0.00000,  0.00000,  1.00000,  0,  100.0,  4.200,  1.260
5036,  '1',  0.000,  3.260,  3.260,  -0.710,  1.02000,  0,  7.680,  0.00000,  0.14370,  0.00000,  0.00000,  1.00000,  0,  100.0,  6.400,  1.920
5037,  '1',  222.100,  -34.240,  157.010,  -34.240,  1.02000,  0,  370.160,  0.00000,  0.29910,  0.00000,  0.00000,  1.00000,  1,  100.0,  308.470,  92.540
5038,  '1',  222.100,  -34.240,  157.010,  -34.240,  1.02000,  0,  370.160,  0.00000,  0.12330,  0.00000,  0.00000,  1.00000,  1,  100.0,  308.470,  92.540
5039,  '1',  222.100,  -34.240,  157.010,  -34.240,  1.02000,  0,  370.160,  0.00000,  0.21470,  0.00000,  0.00000,  1.00000,  1,  100.0,  308.470,  92.540
5040,  '1',  222.100,  -34.240,  157.010,  -34.240,  1.02000,  0,  370.160,  0.00000,  0.19240,  0.00000,  0.00000,  1.00000,  1,  100.0,  308.470,  92.540
5041,  '1',  222.100,  -34.240,  157.010,  -34.240,  1.02000,  0,  370.160,  0.00000,  0.11590,  0.00000,  0.00000,  1.00000,  1,  100.0,  308.470,  92.540
5042,  '1',  222.100,  -34.240,  157.010,  -34.240,  1.02000,  0,  370.160,  0.00000,  0.19130,  0.00000,  0.00000,  1.00000,  1,  100.0,  308.470,  92.540
5051,  '1',  0.000,  43.110,  43.110,  -9.400,  1.02000,  0,  101.640,  0.00000,  0.12480,  0.00000,  0.00000,  1.00000,  0,  100.0,  84.700,  25.410
5057,  '1',  228.450,  -35.230,  161.530,  -35.230,  1.00000,  0,  380.820,  0.00000,  0.19130,  0.00000,  0.00000,  1.00000,  1,  100.0,  317.350,  95.200
5058,  '1',  228.490,  -35.230,  161.530,  -35.230,  1.00000,  0,  380.820,  0.00000,  0.29820,  0.00000,  0.00000,  1.00000,  1,  100.0,  317.350,  95.200
5065,  '1',  0.000,  5.400,  5.400,  -1.180,  1.03000,  0,  12.720,  0.00000,  0.13710,  0.00000,  0.00000,  1.00000,  0,  100.0,  10.600,  3.180
5066,  '1',  0.000,  0.920,  0.920,  -0.200,  1.03000,  0,  2.160,  0.00000,  0.13100,  0.00000,  0.00000,  1.00000,  0,  100.0,  1.800,  0.540
5067,  '1',  315.550,  -20.295,  223.080,  -48.650,  1.03000,  0,  525.920,  0.00000,  0.32610,  0.00000,  0.00000,  1.00000,  1,  100.0,  438.270,  131.480
5068,  '1',  315.550,  -20.503,  223.080,  -48.650,  1.03000,  0,  525.920,  0.00000,  0.11690,  0.00000,  0.00000,  1.00000,  1,  100.0,  438.270,  131.480
5069,  '1',  315.550,  -19.668,  223.080,  -48.650,  1.03000,  0,  525.920,  0.00000,  0.10560,  0.00000,  0.00000,  1.00000,  1,  100.0,  438.270,  131.480
5106,  '1',  0.000,  0.000,  5.030,  -1.320,  1.04000,  0,  12.960,  0.00000,  0.31910,  0.00000,  0.00000,  1.00000,  0,  100.0,  10.800,  3.240
5107,  '1',  0.000,  0.000,  2.660,  -0.700,  1.04000,  0,  6.840,  0.00000,  0.27550,  0.00000,  0.00000,  1.00000,  0,  100.0,  5.700,  1.710
5166,  '1',  37.950,  13.997,  64.390,  -14.040,  1.04000,  0,  151.800,  0.00000,  0.13910,  0.00000,  0.00000,  1.00000,  1,  100.0,  126.500,  37.950
5167,  '1',  0.000,  0.810,  0.810,  -0.180,  1.04000,  0,  1.920,  0.00000,  0.10670,  0.00000,  0.00000,  1.00000,  0,  100.0,  1.600,  0.480
5206,  '1',  144.230,  -27.600,  126.570,  -27.600,  1.01000,  0,  298.400,  0.00000,  0.11980,  0.00000,  0.00000,  1.00000,  1,  100.0,  248.670,  74.600
5207,  '1',  144.230,  -27.600,  126.570,  -27.600,  1.01000,  0,  298.400,  0.00000,  0.18090,  0.00000,  0.00000,  1.00000,  1,  100.0,  248.670,  74.600
5208,  '1',  144.230,  -27.600,  126.570,  -27.600,  1.01000,  0,  298.400,  0.00000,  0.10560,  0.00000,  0.00000,  1.00000,  1,  100.0,  248.670,  74.600
5238,  '1',  44.176,  -32.400,  47.930,  -32.400,  1.00000,  0,  270.000,  0.00000,  1.00000,  0.00000,  0.00000,  1.00000,  1,  100.0,  225.000,  67.500
5262,  '1',  1215.000,  -99.630,  447.120,  -99.630,  1.01000,  0,  1458.00,  0.00000,  0.26310,  0.00000,  0.00000,  1.00000,  1,  100.0,  1215.00,  364.500
5263,  '1',  1215.000,  -99.630,  447.120,  -99.630,  1.01000,  0,  1458.00,  0.00000,  0.16260,  0.00000,  0.00000,  1.00000,  1,  100.0,  1215.00,  364.500
5281,  '1',  80.320,  -29.720,  136.280,  -29.720,  1.00000,  0,  321.280,  0.00000,  0.10660,  0.00000,  0.00000,  1.00000,  1,  100.0,  267.730,  80.320
5282,  '1',  80.320,  -29.720,  136.280,  -29.720,  1.00000,  0,  321.280,  0.00000,  0.23940,  0.00000,  0.00000,  1.00000,  1,  100.0,  267.730,  80.320
5283,  '1',  80.320,  -29.720,  136.280,  -29.720,  1.00000,  0,  321.280,  0.00000,  0.10650,  0.00000,  0.00000,  1.00000,  1,  100.0,  267.730,  80.320
5297,  '1',  0.000,  0.000,  1.630,  -0.360,  1.04000,  0,  3.840,  0.00000,  0.19100,  0.00000,  0.00000,  1.00000,  0,  100.0,  3.200,  0.960
5298,  '1',  34.500,  53.761,  58.530,  -12.760,  1.04000,  0,  138.000,  0.00000,  0.13260,  0.00000,  0.00000,  1.00000,  1,  100.0,  115.000,  34.500
5299,  '1',  34.500,  25.981,  58.530,  -12.760,  1.04000,  0,  138.000,  0.00000,  0.32280,  0.00000,  0.00000,  1.00000,  1,  100.0,  115.000,  34.500
5300,  '1',  34.500,  31.357,  58.530,  -12.760,  1.04000,  0,  138.000,  0.00000,  0.21910,  0.00000,  0.00000,  1.00000,  1,  100.0,  115.000,  34.500
5301,  '1',  0.000,  42.090,  42.090,  -9.180,  1.04000,  0,  99.240,  0.00000,  0.19640,  0.00000,  0.00000,  1.00000,  0,  100.0,  82.700,  24.810
5302,  '1',  139.130,  32.459,  236.050,  -51.480,  1.04000,  0,  556.500,  0.00000,  0.13300,  0.00000,  0.00000,  1.00000,  1,  100.0,  463.750,  139.130
5303,  '1',  139.130,  43.957,  236.050,  -51.480,  1.04000,  0,  556.500,  0.00000,  0.17920,  0.00000,  0.00000,  1.00000,  1,  100.0,  463.750,  139.130
5319,  '1',  78.840,  -29.170,  133.770,  -29.170,  1.01000,  0,  315.360,  0.00000,  0.25070,  0.00000,  0.00000,  1.00000,  1,  100.0,  262.800,  78.840
5320,  '1',  78.840,  -29.170,  133.770,  -29.170,  1.01000,  0,  315.360,  0.00000,  0.28140,  0.00000,  0.00000,  1.00000,  1,  100.0,  262.800,  78.840
5321,  '1',  78.840,  -29.170,  133.770,  -29.170,  1.01000,  0,  315.360,  0.00000,  0.12810,  0.00000,  0.00000,  1.00000,  1,  100.0,  262.800,  78.840
5324,  '1',  204.530,  35.329,  144.590,  -31.530,  1.04000,  0,  340.880,  0.00000,  0.21670,  0.00000,  0.00000,  1.00000,  1,  100.0,  284.070,  85.220
5325,  '1',  204.530,  36.807,  144.590,  -31.530,  1.04000,  0,  340.880,  0.00000,  0.15030,  0.00000,  0.00000,  1.00000,  1,  100.0,  284.070,  85.220
5326,  '1',  204.530,  99.128,  144.590,  -31.530,  1.04000,  0,  340.880,  0.00000,  0.18810,  0.00000,  0.00000,  1.00000,  1,  100.0,  284.070,  85.220
5360,  '1',  262.872,  -148.181,  469.730,  -122.980,  1.01000,  0,  1209.60,  0.00000,  0.25510,  0.00000,  0.00000,  1.00000,  1,  100.0,  1008.00,  302.400
5363,  '1',  0.000,  -1.150,  5.290,  -1.150,  1.00000,  0,  12.480,  0.00000,  0.25820,  0.00000,  0.00000,  1.00000,  0,  100.0,  10.400,  3.120
5364,  '1',  123.730,  -23.680,  108.590,  -23.680,  1.00000,  0,  256.000,  0.00000,  0.13030,  0.00000,  0.00000,  1.00000,  1,  100.0,  213.330,  64.000
5365,  '1',  123.730,  -23.680,  108.590,  -23.680,  1.00000,  0,  256.000,  0.00000,  0.11650,  0.00000,  0.00000,  1.00000,  1,  100.0,  213.330,  64.000
5366,  '1',  123.730,  -23.680,  108.590,  -23.680,  1.00000,  0,  256.000,  0.00000,  0.15490,  0.00000,  0.00000,  1.00000,  1,  100.0,  213.330,  64.000
5367,  '1',  123.730,  -23.680,  108.590,  -23.680,  1.00000,  0,  256.000,  0.00000,  0.10020,  0.00000,  0.00000,  1.00000,  1,  100.0,  213.330,  64.000
5368,  '1',  123.730,  -23.680,  108.590,  -23.680,  1.00000,  0,  256.000,  0.00000,  0.36180,  0.00000,  0.00000,  1.00000,  1,  100.0,  213.330,  64.000
5369,  '1',  123.730,  -23.680,  108.590,  -23.680,  1.00000,  0,  256.000,  0.00000,  0.24440,  0.00000,  0.00000,  1.00000,  1,  100.0,  213.330,  64.000
5382,  '1',  150.480,  61.944,  106.380,  -23.200,  1.04000,  0,  250.800,  0.00000,  0.24770,  0.00000,  0.00000,  1.00000,  1,  100.0,  209.000,  62.700
5383,  '1',  150.480,  54.582,  106.380,  -23.200,  1.04000,  0,  250.800,  0.00000,  0.39820,  0.00000,  0.00000,  1.00000,  1,  100.0,  209.000,  62.700
5399,  '1',  32.514,  -23.850,  35.270,  -23.850,  1.04000,  0,  198.720,  0.00000,  1.00000,  0.00000,  0.00000,  1.00000,  1,  100.0,  165.600,  49.680
5403,  '1',  0.000,  45.500,  45.500,  -9.920,  1.03000,  0,  107.280,  0.00000,  0.19850,  0.00000,  0.00000,  1.00000,  0,  100.0,  89.400,  26.820
5404,  '1',  0.000,  45.500,  45.500,  -9.920,  1.03000,  0,  107.280,  0.00000,  0.13470,  0.00000,  0.00000,  1.00000,  0,  100.0,  89.400,  26.820
5405,  '1',  0.000,  45.500,  45.500,  -9.920,  1.03000,  0,  107.280,  0.00000,  0.14170,  0.00000,  0.00000,  1.00000,  0,  100.0,  89.400,  26.820
5406,  '1',  0.000,  45.500,  45.500,  -9.920,  1.03000,  0,  107.280,  0.00000,  0.12270,  0.00000,  0.00000,  1.00000,  0,  100.0,  89.400,  26.820
5415,  '1',  36.600,  -13.540,  62.100,  -13.540,  1.00000,  0,  146.400,  0.00000,  0.14030,  0.00000,  0.00000,  1.00000,  1,  100.0,  122.000,  36.600
5416,  '1',  36.600,  -13.540,  62.100,  -13.540,  1.00000,  0,  146.400,  0.00000,  0.26480,  0.00000,  0.00000,  1.00000,  1,  100.0,  122.000,  36.600
5417,  '1',  36.600,  -13.540,  62.100,  -13.540,  1.00000,  0,  146.400,  0.00000,  0.16960,  0.00000,  0.00000,  1.00000,  1,  100.0,  122.000,  36.600
5418,  '1',  35.640,  -13.190,  60.470,  -13.190,  1.00000,  0,  142.560,  0.00000,  0.34000,  0.00000,  0.00000,  1.00000,  1,  100.0,  118.800,  35.640
5419,  '1',  35.640,  -13.190,  60.470,  -13.190,  1.00000,  0,  142.560,  0.00000,  0.16420,  0.00000,  0.00000,  1.00000,  1,  100.0,  118.800,  35.640
5423,  '1',  0.000,  -1.380,  6.310,  -1.380,  1.00000,  0,  14.880,  0.00000,  0.12320,  0.00000,  0.00000,  1.00000,  0,  100.0,  12.400,  3.720
5424,  '1',  0.000,  0.000,  1.630,  -0.360,  1.00000,  0,  3.840,  0.00000,  0.18820,  0.00000,  0.00000,  1.00000,  0,  100.0,  3.200,  0.960
5444,  '1',  604.980,  -223.840,  1026.440,  -223.840,  1.01000,  0,  2419.92,  0.00000,  0.34260,  0.00000,  0.00000,  1.00000,  1,  100.0,  2016.60,  604.980
6006,  '1',  123.540,  6.814,  108.420,  -23.640,  1.04000,  0,  255.600,  0.00000,  0.18770,  0.00000,  0.00000,  1.00000,  1,  100.0,  213.000,  63.900
6007,  '1',  306.720,  11.792,  216.830,  -47.290,  1.04000,  0,  511.200,  0.00000,  0.13420,  0.00000,  0.00000,  1.00000,  1,  100.0,  426.000,  127.800
6008,  '1',  115.030,  6.524,  100.950,  -22.010,  1.04000,  0,  238.000,  0.00000,  0.20160,  0.00000,  0.00000,  1.00000,  1,  100.0,  198.330,  59.500
6009,  '1',  115.030,  4.184,  100.950,  -22.010,  1.04000,  0,  238.000,  0.00000,  0.18430,  0.00000,  0.00000,  1.00000,  1,  100.0,  198.330,  59.500
6010,  '1',  115.030,  4.846,  100.950,  -22.010,  1.04000,  0,  238.000,  0.00000,  0.15620,  0.00000,  0.00000,  1.00000,  1,  100.0,  198.330,  59.500
6048,  '1',  0.000,  0.000,  1.730,  -0.380,  1.04000,  0,  4.080,  0.00000,  0.11720,  0.00000,  0.00000,  1.00000,  0,  100.0,  3.400,  1.020
6049,  '1',  0.000,  4.890,  4.890,  -1.070,  1.04000,  0,  11.520,  0.00000,  0.18260,  0.00000,  0.00000,  1.00000,  0,  100.0,  9.600,  2.880
6050,  '1',  0.000,  0.000,  2.240,  -0.490,  1.04000,  0,  5.280,  0.00000,  0.36280,  0.00000,  0.00000,  1.00000,  0,  100.0,  4.400,  1.320
6052,  '1',  0.000,  29.220,  29.220,  -6.370,  1.04000,  0,  68.880,  0.00000,  0.12090,  0.00000,  0.00000,  1.00000,  0,  100.0,  57.400,  17.220
6069,  '1',  54.410,  -12.373,  92.320,  -20.130,  1.03000,  0,  217.640,  0.00000,  0.22480,  0.00000,  0.00000,  1.00000,  1,  100.0,  181.370,  54.410
6070,  '1',  54.410,  -5.154,  92.320,  -20.130,  1.03000,  0,  217.640,  0.00000,  0.24660,  0.00000,  0.00000,  1.00000,  1,  100.0,  181.370,  54.410
6071,  '1',  54.410,  -15.111,  92.320,  -20.130,  1.03000,  0,  217.640,  0.00000,  0.15280,  0.00000,  0.00000,  1.00000,  1,  100.0,  181.370,  54.410
6072,  '1',  54.410,  -6.030,  92.320,  -20.130,  1.03000,  0,  217.640,  0.00000,  0.19250,  0.00000,  0.00000,  1.00000,  1,  100.0,  181.370,  54.410
6073,  '1',  54.410,  -9.306,  92.320,  -20.130,  1.03000,  0,  217.640,  0.00000,  0.14260,  0.00000,  0.00000,  1.00000,  1,  100.0,  181.370,  54.410
6074,  '1',  54.410,  -9.730,  92.320,  -20.130,  1.03000,  0,  217.640,  0.00000,  0.11150,  0.00000,  0.00000,  1.00000,  1,  100.0,  181.370,  54.410
6078,  '1',  169.000,  -68.730,  262.510,  -68.730,  1.00000,  0,  676.000,  0.00000,  0.28900,  0.00000,  0.00000,  1.00000,  1,  100.0,  563.330,  169.000
6079,  '1',  169.000,  -68.730,  262.510,  -68.730,  1.00000,  0,  676.000,  0.00000,  0.25330,  0.00000,  0.00000,  1.00000,  1,  100.0,  563.330,  169.000
6080,  '1',  169.000,  -68.730,  262.510,  -68.730,  1.00000,  0,  676.000,  0.00000,  0.32510,  0.00000,  0.00000,  1.00000,  1,  100.0,  563.330,  169.000
6085,  '1',  0.000,  0.000,  0.000,  0.000,  1.04000,  0,  1.680,  0.00000,  1.00000,  0.00000,  0.00000,  1.00000,  0,  100.0,  1.400,  0.420
6086,  '1',  0.000,  0.000,  0.000,  0.000,  1.04000,  0,  36.000,  0.00000,  1.00000,  0.00000,  0.00000,  1.00000,  0,  100.0,  30.000,  9.000
6087,  '1',  0.000,  0.000,  0.000,  0.000,  1.04000,  0,  6.600,  0.00000,  1.00000,  0.00000,  0.00000,  1.00000,  0,  100.0,  5.500,  1.650
6088,  '1',  0.000,  0.000,  0.000,  0.000,  1.04000,  0,  12.720,  0.00000,  1.00000,  0.00000,  0.00000,  1.00000,  0,  100.0,  10.600,  3.180
...
 0 /End of Generator data, Begin Branch data
1001,  1064,  '1',  0.00524,  0.03580,  0.00609,  221.00,  0.00,  0.00,  0.00000,  0.000,  0.00000,  0.00000,  0.00000,  0.00000,  1
1001,  1064,  '2',  0.00524,  0.03580,  0.00609,  221.00,  0.00,  0.00,  0.00000,  0.000,  0.00000,  0.00000,  0.00000,  0.00000,  1
1001,  1071,  '1',  0.00435,  0.02808,  0.00536,  221.00,  0.00,  0.00,  0.00000,  0.000,  0.00000,  0.00000,  0.00000,  0.00000,  1
1001,  1071,  '2',  0.00435,  0.02808,  0.00536,  221.00,  0.00,  0.00,  0.00000,  0.000,  0.00000,  0.00000,  0.00000,  0.00000,  1
1001,  11001,  '1',  0.00000,  0.04583,  0.00000,  26.18,  0.00,  0.00,  1.00000,  -1.244,  0.00000,  0.00000,  0.00000,  0.00000,  1
1002,  1007,  '1',  0.07776,  0.46693,  0.06336,  98.00,  0.00,  0.00,  0.00000,  0.000,  0.00000,  0.00000,  0.00000,  0.00000,  1
1002,  -1010,  '1',  0.05552,  0.13570,  0.01777,  98.00,  0.00,  0.00,  0.00000,  0.000,  0.00000,  0.00000,  0.00000,  0.00000,  1
1002,  11002,  '1',  0.00000,  0.07681,  0.00000,  15.62,  0.00,  0.00,  1.00000,  -1.264,  0.00000,  0.00000,  0.00000,  0.00000,  1
1004,  1003,  '1',  0.00450,  0.11582,  0.00000,  250.00,  0.00,  0.00,  1.00000,  0.000,  0.00000,  0.00000,  0.00000,  0.00000,  1
1003,  -1022,  '1',  0.00485,  0.02012,  0.00341,  221.00,  0.00,  0.00,  0.00000,  0.000,  0.00000,  0.00000,  0.00000,  0.00000,  1
1003,  -1055,  '1',  0.01574,  0.03782,  0.00513,  98.00,  0.00,  0.00,  0.00000,  0.000,  0.00000,  0.00000,  0.00000,  0.00000,  1
1004,  3133,  '1',  0.00420,  0.03000,  0.05500,  523.00,  0.00,  0.00,  0.00000,  0.000,  0.00000,  0.00000,  0.00000,  0.00000,  1
1006,  1005,  '1',  0.01300,  0.13000,  0.00000,  42.00,  0.00,  0.00,  1.00000,  0.000,  0.00000,  0.00000,  0.00000,  0.00000,  1
1005,  -1025,  '1',  0.01842,  0.08210,  0.01204,  149.00,  0.00,  0.00,  0.00000,  0.000,  0.00000,  0.00000,  0.00000,  0.00000,  1
1005,  1061,  '1',  0.00599,  0.02484,  0.00422,  221.00,  0.00,  0.00,  0.00000,  0.000,  0.00000,  0.00000,  0.00000,  0.00000,  1
1005,  -1067,  '1',  0.01711,  0.04181,  0.00548,  98.00,  0.00,  0.00,  0.00000,  0.000,  0.00000,  0.00000,  0.00000,  0.00000,  1
1007,  1015,  '1',  0.06224,  0.37375,  0.05072,  98.00,  0.00,  0.00,  0.00000,  0.000,  0.00000,  0.00000,  0.00000,  0.00000,  1
1007,  -1031,  '1',  0.04803,  0.27434,  0.04123,  98.00,  0.00,  0.00,  0.00000,  0.000,  0.00000,  0.00000,  0.00000,  0.00000,  1
1007,  11007,  '1',  0.00000,  0.26235,  0.00000,  4.57,  0.00,  0.00,  1.00000,  -1.231,  0.00000,  0.00000,  0.00000,  0.00000,  1
1009,  1008,  '1',  0.00455,  0.09471,  0.00000,  120.00,  0.00,  0.00,  1.00000,  0.000,  0.00000,  0.00000,  0.00000,  0.00000,  1
1008,  1032,  '1',  0.04501,  0.11002,  0.01441,  98.00,  0.00,  0.00,  0.00000,  0.000,  0.00000,  0.00000,  0.00000,  0.00000,  1
1008,  1069,  '1',  0.00830,  0.03628,  0.00553,  149.00,  0.00,  0.00,  0.00000,  0.000,  0.00000,  0.00000,  0.00000,  0.00000,  1
1011,  1010,  '1',  0.01300,  0.13000,  0.00000,  46.00,  0.00,  0.00,  1.00000,  0.000,  0.00000,  0.00000,  0.00000,  0.00000,  1
1010,  1015,  '1',  0.04703,  0.28243,  0.03833,  98.00,  0.00,  0.00,  0.00000,  0.000,  0.00000,  0.00000,  0.00000,  0.00000,  1
1010,  1030,  '1',  0.06160,  0.36990,  0.05020,  98.00,  0.00,  0.00,  0.00000,  0.000,  0.00000,  0.00000,  0.00000,  0.00000,  1
1012,  1087,  '1',  0.04934,  0.20469,  0.03473,  149.00,  0.00,  0.00,  0.00000,  0.000,  0.00000,  0.00000,  0.00000,  0.00000,  1
1012,  -3051,  '1',  0.05710,  0.24977,  0.03804,  149.00,  0.00,  0.00,  0.00000,  0.000,  0.00000,  0.00000,  0.00000,  0.00000,  1
1012,  11012,  '1',  0.00000,  0.71796,  0.00000,  1.67,  0.00,  0.00,  1.00000,  -1.364,  0.00000,  0.00000,  0.00000,  0.00000,  1
1013,  1031,  '1',  0.04509,  0.27078,  0.03675,  98.00,  0.00,  0.00,  0.00000,  0.000,  0.00000,  0.00000,  0.00000,  0.00000,  1
1013,  -1047,  '1',  0.00947,  0.06117,  0.01167,  221.00,  0.00,  0.00,  0.00000,  0.000,  0.00000,  0.00000,  0.00000,  0.00000,  1
1013,  -1086,  '1',  0.07900,  0.19311,  0.02529,  98.00,  0.00,  0.00,  0.00000,  0.000,  0.00000,  0.00000,  0.00000,  0.00000,  1
1013,  11013,  '1',  0.00000,  0.03772,  0.00000,  31.81,  0.00,  0.00,  1.00000,  -1.120,  0.00000,  0.00000,  0.00000,  0.00000,  1
1014,  1047,  '1',  0.03566,  0.14794,  0.02510,  149.00,  0.00,  0.00,  0.00000,  0.000,  0.00000,  0.00000,  0.00000,  0.00000,  1
1014,  1083,  '1',  0.04105,  0.18293,  0.02682,  149.00,  0.00,  0.00,  0.00000,  0.000,  0.00000,  0.00000,  0.00000,  0.00000,  1
1014,  11014,  '1',  0.00000,  0.55848,  0.00000,  2.15,  0.00,  0.00,  1.00000,  -1.139,  0.00000,  0.00000,  0.00000,  0.00000,  1
1015,  11015,  '1',  0.00000,  0.15761,  0.00000,  7.61,  0.00,  0.00,  1.00000,  -1.256,  0.00000,  0.00000,  0.00000,  0.00000,  1
1016,  1034,  '1',  0.01828,  0.10976,  0.01489,  98.00,  0.00,  0.00,  0.00000,  0.000,  0.00000,  0.00000,  0.00000,  0.00000,  1
1016,  -1068,  '1',  0.02773,  0.15837,  0.02380,  98.00,  0.00,  0.00,  0.00000,  0.000,  0.00000,  0.00000,  0.00000,  0.00000,  1
1016,  11016,  '1',  0.00000,  0.39847,  0.00000,  3.01,  0.00,  0.00,  1.00000,  -1.304,  0.00000,  0.00000,  0.00000,  0.00000,  1
1017,  -1018,  '1',  0.03227,  0.07887,  0.01033,  98.00,  0.00,  0.00,  0.00000,  0.000,  0.00000,  0.00000,  0.00000,  0.00000,  1
1017,  1029,  '1',  0.03244,  0.14188,  0.02161,  149.00,  0.00,  0.00,  0.00000,  0.000,  0.00000,  0.00000,  0.00000,  0.00000,  1
1017,  -1037,  '1',  0.00752,  0.03352,  0.00491,  221.00,  0.00,  0.00,  0.00000,  0.000,  0.00000,  0.00000,  0.00000,  0.00000,  1
1017,  -1047,  '1',  0.03600,  0.15600,  0.02400,  150.00,  0.00,  0.00,  0.00000,  0.000,  0.00000,  0.00000,  0.00000,  0.00000,  1
1017,  11017,  '1',  0.00000,  0.05029,  0.00000,  23.86,  0.00,  0.00,  1.00000,  -1.246,  0.00000,  0.00000,  0.00000,  0.00000,  1
1018,  -1024,  '1',  0.01094,  0.06572,  0.00892,  98.00,  0.00,  0.00,  0.00000,  0.000,  0.00000,  0.00000,  0.00000,  0.00000,  1
1018,  11018,  '1',  0.00000,  15.35851,  0.00000,  0.08,  0.00,  0.00,  1.00000,  -1.251,  0.00000,  0.00000,  0.00000,  0.00000,  1
1019,  1040,  '1',  0.04978,  0.20651,  0.03504,  149.00,  0.00,  0.00,  0.00000,  0.000,  0.00000,  0.00000,  0.00000,  0.00000,  1
1019,  1045,  '1',  0.01522,  0.03720,  0.00487,  221.00,  0.00,  0.00,  0.00000,  0.000,  0.00000,  0.00000,  0.00000,  0.00000,  1
1019,  1071,  '1',  0.00440,  0.02800,  0.00540,  225.00,  0.00,  0.00,  0.00000,  0.000,  0.00000,  0.00000,  0.00000,  0.00000,  1
1019,  -1071,  '2',  0.00440,  0.02800,  0.00540,  225.00,  0.00,  0.00,  0.00000,  0.000,  0.00000,  0.00000,  0.00000,  0.00000,  1
1019,  1084,  '1',  0.03000,  0.16000,  0.02500,  220.00,  0.00,  0.00,  0.00000,  0.000,  0.00000,  0.00000,  0.00000,  0.00000,  1
1019,  11019,  '1',  0.00000,  0.01968,  0.00000,  60.99,  0.00,  0.00,  1.00000,  -1.247,  0.00000,  0.00000,  0.00000,  0.00000,  1
1021,  1020,  '1',  0.00327,  0.07812,  0.00000,  250.00,  0.00,  0.00,  1.00000,  0.000,  0.00000,  0.00000,  0.00000,  0.00000,  1
1020,  -1025,  '1',  0.00828,  0.03434,  0.00583,  149.00,  0.00,  0.00,  0.00000,  0.000,  0.00000,  0.00000,  0.00000,  0.00000,  1
1020,  -1084,  '1',  0.01056,  0.06337,  0.00860,  221.00,  0.00,  0.00,  0.00000,  0.000,  0.00000,  0.00000,  0.00000,  0.00000,  1
1020,  3059,  '1',  0.01890,  0.06000,  0.00600,  300.00,  0.00,  0.00,  0.00000,  0.000,  0.00000,  0.00000,  0.00000,  0.00000,  1
1020,  3130,  '1',  0.00996,  0.06938,  0.01134,  221.00,  0.00,  0.00,  0.00000,  0.000,  0.00000,  0.00000,  0.00000,  0.00000,  1
1023,  1022,  '1',  0.00535,  0.11733,  0.00000,  250.00,  0.00,  0.00,  1.00000,  0.000,  0.00000,  0.00000,  0.00000,  0.00000,  1
1022,  1028,  '1',  0.01433,  0.09253,  0.01765,  221.00,  0.00,  0.00,  0.00000,  0.000,  0.00000,  0.00000,  0.00000,  0.00000,  1
1022,  1028,  '2',  0.01433,  0.09253,  0.01765,  221.00,  0.00,  0.00,  0.00000,  0.000,  0.00000,  0.00000,  0.00000,  0.00000,  1
1024,  1090,  '1',  0.01414,  0.06303,  0.00924,  149.00,  0.00,  0.00,  0.00000,  0.000,  0.00000,  0.00000,  0.00000,  0.00000,  1
1024,  11024,  '1',  0.00000,  0.01716,  0.00000,  69.95,  0.00,  0.00,  1.00000,  -1.255,  0.00000,  0.00000,  0.00000,  0.00000,  1
1026,  1025,  '1',  0.01300,  0.13000,  0.00000,  200.00,  0.00,  0.00,  1.00000,  0.000,  0.00000,  0.00000,  0.00000,  0.00000,  1
1027,  1045,  '1',  0.02505,  0.10957,  0.01669,  221.00,  0.00,  0.00,  0.00000,  0.000,  0.00000,  0.00000,  0.00000,  0.00000,  1
1027,  -1056,  '1',  0.03121,  0.07630,  0.00999,  250.00,  0.00,  0.00,  0.00000,  0.000,  0.00000,  0.00000,  0.00000,  0.00000,  1
1027,  11027,  '1',  0.00000,  0.02144,  0.00000,  55.97,  0.00,  0.00,  1.00000,  -1.310,  0.00000,  0.00000,  0.00000,  0.00000,  1
1028,  3109,  '1',  0.00428,  0.01875,  0.00286,  250.00,  0.00,  0.00,  0.00000,  0.000,  0.00000,  0.00000,  0.00000,  0.00000,  1
1028,  11028,  '1',  0.00000,  0.25990,  0.00000,  4.62,  0.00,  0.00,  1.00000,  -1.186,  0.00000,  0.00000,  0.00000,  0.00000,  1
1029,  1056,  '1',  0.02054,  0.11733,  0.01763,  221.00,  0.00,  0.00,  0.00000,  0.000,  0.00000,  0.00000,  0.00000,  0.00000,  1
1029,  11029,  '1',  0.00000,  0.01057,  0.00000,  113.52,  0.00,  0.00,  1.00000,  -1.335,  0.00000,  0.00000,  0.00000,  0.00000,  1
1030,  1038,  '1',  0.07404,  0.42285,  0.06354,  98.00,  0.00,  0.00,  0.00000,  0.000,  0.00000,  0.00000,  0.00000,  0.00000,  1
1030,  -1083,  '1',  0.06537,  0.37334,  0.05610,  98.00,  0.00,  0.00,  0.00000,  0.000,  0.00000,  0.00000,  0.00000,  0.00000,  1
1030,  11030,  '1',  0.00000,  0.09461,  0.00000,  12.68,  0.00,  0.00,  1.00000,  -1.240,  0.00000,  0.00000,  0.00000,  0.00000,  1
1031,  11031,  '1',  0.00000,  0.23955,  0.00000,  5.01,  0.00,  0.00,  1.00000,  -1.182,  0.00000,  0.00000,  0.00000,  0.00000,  1
1033,  1032,  '1',  0.00283,  0.06758,  0.00000,  170.00,  0.00,  0.00,  1.00000,  0.000,  0.00000,  0.00000,  0.00000,  0.00000,  1
1032,  1036,  '1',  0.01956,  0.11746,  0.01594,  98.00,  0.00,  0.00,  0.00000,  0.000,  0.00000,  0.00000,  0.00000,  0.00000,  1
1032,  -1038,  '1',  0.04500,  0.11000,  0.01500,  155.00,  0.00,  0.00,  0.00000,  0.000,  0.00000,  0.00000,  0.00000,  0.00000,  1
1033,  1081,  '1',  0.00300,  0.03100,  0.05900,  548.00,  0.00,  0.00,  0.00000,  0.000,  0.00000,  0.00000,  0.00000,  0.00000,  1
1033,  3050,  '1',  0.01390,  0.13600,  0.26200,  647.00,  0.00,  0.00,  0.00000,  0.000,  0.00000,  0.00000,  0.00000,  0.00000,  1
1035,  1034,  '1',  0.00438,  0.08496,  0.00000,  130.00,  0.00,  0.00,  1.00000,  0.000,  0.00000,  0.00000,  0.00000,  0.00000,  1
...